[General]
network = artery.envmod.World
#network = DAVE_B170

#*.playgroundSizeX = 2500m
#*.playgroundSizeY = 2500m
#*.playgroundSizeZ = 50m

sim-time-limit = 1000s

debug-on-errors = true
print-undisposed = true

#cmdenv-express-mode = true
#cmdenv-autoflush = true

**.scalar-recording = false
**.vector-recording = false

# Set the same reference time for all middlewares
**.middleware.datetime = "2021-01-08 12:00:00"

*.traci.core.version = -1
*.traci.launcher.typename = "PosixLauncher"
*.traci.launcher.sumocfg = "sumo/config/dave_b170.sumocfg"
#*.traci.launcher.sumo = "sumo-gui"

# separate random number generator for vehicle penetration rate
num-rngs = 2
*.traci.mapper.rng-0 = 1

# rsu (generel)
*.numRoadSideUnits = 1
# *.rsu[*].middleware.datetime = "2013-06-01 12:00:00"
*.rsu[*].middleware.services = xmldoc("services-rsu.xml")

*.rsu*.wlan[*].radio.transmitter.power = 47.9 mW
*.rsu*.wlan[*].radio.antennaType = "ConstantGainAntenna" # omnidirectional antenna
*.rsu*.wlan[*].radio.antenna.gain = 10dB # omnidirectional antenna

# rsu[0]
*.rsu[*].mobility.initialZ = 0m
*.rsu[0].mobility.initialX = 100m
*.rsu[0].mobility.initialY = 30m

# rsu recording
*.rsu[*].middleware.RsuCA.reception.result-recording-modes = all

# vehicles
*.node[*].wlan[*].typename = "VanetNic"
*.node[*].wlan[*].radio.channelNumber = 180
*.node[*].wlan[*].radio.carrierFrequency = 5.9 GHz
*.node[*].wlan[*].radio.transmitter.power = 200 mW

*.node[*].middleware.updateInterval = 0.1s
# *.node[*].middleware.datetime = "2013-06-01 12:00:00"
*.node[*].middleware.services = xmldoc("services.xml")
*.node[*].middleware.DenService.useCases = xmldoc("den-use-cases.xml")